//----------------------------- -*- C++ -*- ---------------------------.
FoamFile
{
    version     2.0;
    format      ascii;
    class       dictionary;
    location    "system";
    object      decomposeParDict;
}
//----------------------------------------------------------------------

numberOfSubdomains 8;

method  scotch; 




multiLevelCoeffs
{
    level0
    {
        numberOfSubdomains  4;
		method  scotch; 
    }    

    level1
    {
        numberOfSubdomains  16;
		method  scotch; 
        multiLevelCoeffs
		{
			level0
			{
				method  scotch; 
				numberOfSubdomains  4;
			}
			level1
			{
				method  scotch; 
				numberOfSubdomains  4;
			}
		}
	}
}



simpleCoeffs
{
    n               ( 2 2 2 );
    delta           0.001;
}

hierarchicalCoeffs
{
    n               ( 2 2 2 );
    delta           0.001;
    order           xyz;
}

metisCoeffs
{
//    processorWeights ( 1 1 1 1 );
}

manualCoeffs
{
    dataFile        "";
}

distributed     no;

roots           ( );


//---------------------------------------------------------------------'
