//----------------------------- -*- C++ -*- ---------------------------.
FoamFile
{
    version     2.0;
    format      ascii;
    class       dictionary;
    location    "system";
    object      decomposeParDict;
}
//----------------------------------------------------------------------


numberOfSubdomains 64;

method  multiLevel;



multiLevelCoeffs
{
    level0
    {
        numberOfSubdomains  8;
        method  scotch;
    }

    level1
    {
        numberOfSubdomains  8;
		method  multiLevel;
        multiLevelCoeffs
		{
			level0
			{
			    method  scotch;
				numberOfSubdomains  2;
			}
			level1
			{
				method  scotch;
				numberOfSubdomains  4;
			}
		}
    }

}



simpleCoeffs
{
    n               ( 4 4 4 );
    delta           0.005;
}

hierarchicalCoeffs
{
    n               ( 4 4 4 );
    delta           0.001;
    order           xyz;
}

metisCoeffs
{
//    processorWeights ( 1 1 1 1 );
}

manualCoeffs
{
    dataFile        "";
}

distributed     no;

roots           ( );


//---------------------------------------------------------------------'
