//----------------------------- -*- C++ -*- ---------------------------.
FoamFile
{
    version     2.0;
    format      ascii;
    class       dictionary;
    location    "system";
    object      decomposeParDict;
}
//----------------------------------------------------------------------


numberOfSubdomains 30;

  method  multiLevel; 



multiLevelCoeffs
{
    level0
    {
        numberOfSubdomains  2;
        method  scotch; 
    }    

    level1
    {
        numberOfSubdomains  15;
		method  multiLevel; 
        		
		multiLevelCoeffs
		{
			level0
			{
				method  scotch; 
				numberOfSubdomains  5;
			}
			level1
			{
				method  scotch; 
				numberOfSubdomains  3;
							
			}
		}
    }


}



simpleCoeffs
{
    n               ( 2 2 2 );
    delta           0.001;
}

hierarchicalCoeffs
{
    n               ( 2 2 2 );
    delta           0.001;
    order           xyz;
}

metisCoeffs
{
//    processorWeights ( 1 1 1 1 );
}

manualCoeffs
{
    dataFile        "";
}

distributed     no;

roots           ( );


//---------------------------------------------------------------------'
