//----------------------------- -*- C++ -*- ---------------------------.
FoamFile
{
    version     2.0;
    format      ascii;
    class       dictionary;
    location    "system";
    object      decomposeParDict;
}
//----------------------------------------------------------------------


numberOfSubdomains 12;

  method  multiLevel; 



multiLevelCoeffs
{
    level0
    {
        numberOfSubdomains  3;
        method  scotch; 
    }    

    level1
    {
        numberOfSubdomains  4;
		method  scotch; 
    }


}



simpleCoeffs
{
    n               ( 2 2 2 );
    delta           0.001;
}

hierarchicalCoeffs
{
    n               ( 2 2 2 );
    delta           0.001;
    order           xyz;
}

metisCoeffs
{
//    processorWeights ( 1 1 1 1 );
}

manualCoeffs
{
    dataFile        "";
}

distributed     no;

roots           ( );


//---------------------------------------------------------------------'
